Version 4
SHEET 1 880 680
WIRE 128 80 64 80
WIRE 256 80 208 80
WIRE 64 128 64 80
WIRE 256 144 256 80
WIRE 64 208 64 192
WIRE 64 256 64 208
WIRE 256 256 256 208
FLAG 64 256 0
FLAG 256 256 0
SYMBOL voltage 64 112 R0
WINDOW 123 0 0 Left 0
WINDOW 39 0 0 Left 0
SYMATTR InstName V1
SYMATTR Value PULSE(0 10 0 1p 1p 5m 10m)
SYMBOL res 224 64 R90
WINDOW 0 0 56 VBottom 2
WINDOW 3 32 56 VTop 2
SYMATTR InstName R1
SYMATTR Value 100k
SYMBOL cap 240 144 R0
SYMATTR InstName C1
SYMATTR Value 100n
TEXT -64 232 Left 2 !.tran 100m
